EVs_4kW/Output_EVs_4kW/output_current_566.csv
# Output_EVs_4kW\output_current_566.csv run at 2000-01-01 09:26:00 EST on 907 links
link_name,currA_mag,currA_angle,currB_mag,currB_angle,currC_mag,currC_angle
Source_Impedance,13.671021,-0.353778,11.377535,3.784598,12.141831,1.882094
TR1,13.671021,-0.353778,11.377535,3.784598,12.141831,1.882094
LINE1,378.497438,-0.838759,340.552925,3.332485,261.249680,1.248880
LINE2,378.497438,-0.838759,340.552925,3.332485,261.249680,1.248880
LINE3,378.497438,-0.838759,340.552925,3.332485,261.249680,1.248880
LINE4,378.497438,-0.838759,340.552925,3.332485,261.249680,1.248880
LINE5,378.497438,-0.838759,340.552925,3.332485,261.249680,1.248880
LINE6,378.497438,-0.838759,340.552925,3.332485,261.249680,1.248880
LINE7,378.497438,-0.838759,340.552925,3.332485,261.249680,1.248880
LINE8,378.497438,-0.838759,340.552925,3.332485,261.249680,1.248880
LINE9,378.497438,-0.838759,340.552925,3.332485,261.249680,1.248880
LINE10,378.497438,-0.838759,340.552925,3.332485,261.249680,1.248880
LINE11,378.497438,-0.838759,340.552925,3.332485,261.249680,1.248880
LINE12,378.497438,-0.838759,340.552925,3.332485,261.249680,1.248880
LINE13,378.497438,-0.838759,340.552925,3.332485,261.249680,1.248880
LINE14,378.497438,-0.838759,340.552925,3.332485,261.249680,1.248880
LINE15,0.000000,0.074737,0.000000,3.211612,0.000000,1.590756
LINE16,378.497438,-0.838759,340.552925,3.332485,261.249680,1.248880
LINE17,0.000000,-0.024932,0.000000,3.116661,0.000000,1.592705
LINE18,378.497438,-0.838759,340.552925,3.332485,261.249680,1.248880
LINE19,0.000000,0.296819,0.000000,3.172159,0.000000,1.618652
LINE20,378.497438,-0.838759,340.552925,3.332485,261.249680,1.248880
LINE21,0.000000,0.220047,0.000000,3.258558,0.000000,1.604391
LINE22,378.497438,-0.838759,340.552925,3.332485,261.249680,1.248880
LINE23,0.000000,0.140217,0.000000,3.314056,0.000000,1.579055
LINE24,378.497438,-0.838759,340.552925,3.332485,261.249680,1.248880
LINE25,0.000000,-0.024932,0.000000,3.322056,0.000000,1.577104
LINE26,34.241997,-0.851861,0.000000,2.946423,0.000000,1.442912
LINE27,344.258671,-0.837456,340.552925,3.332485,261.249680,1.248880
LINE28,0.000000,-0.149287,0.000000,3.241016,0.000000,1.574502
LINE29,17.120053,-0.851874,0.000000,3.463742,0.000000,4.575077
LINE30,17.121944,-0.851847,0.000000,2.921640,0.000000,1.438774
LINE31,344.258671,-0.837456,340.552925,3.332485,261.249680,1.248880
LINE32,0.000000,-0.133203,0.000000,3.185517,0.000000,1.581006
LINE33,17.120053,-0.851874,0.000000,2.964900,0.000000,2.675470
LINE34,17.121944,-0.851847,0.000000,2.903373,0.000000,1.479281
LINE35,0.000000,-1.279995,34.489938,3.333816,0.000000,-1.489918
LINE36,344.258671,-0.837456,306.063021,3.332334,261.249680,1.248880
LINE37,0.000000,-0.115592,0.000000,3.212520,0.000000,1.582678
LINE38,17.121944,-0.851847,0.000000,4.207685,0.000000,1.583158
LINE39,0.000000,-1.136657,17.245171,3.333819,0.000000,-1.441311
LINE40,0.000000,2.088666,17.244767,3.333814,0.000000,4.700623
LINE41,344.258671,-0.837456,306.063021,3.332334,261.249680,1.248880
LINE42,0.000000,2.426023,0.000000,1.708194,0.000000,1.838878
LINE43,0.000000,-0.190081,0.000000,3.314056,0.000000,1.553677
LINE44,17.121944,-0.851847,0.000000,4.586525,0.000000,1.563763
LINE45,0.000000,3.428764,17.245171,3.333819,0.000000,-1.523152
LINE46,0.000000,2.493681,17.244767,3.333814,0.000000,4.711566
LINE47,344.258671,-0.837456,306.063021,3.332334,261.249680,1.248880
LINE48,0.000000,2.822095,0.000000,1.439541,0.000000,1.763914
LINE49,0.000000,0.140217,0.000000,2.951512,0.000000,1.569298
LINE50,17.121944,-0.851847,0.000000,1.824081,0.000000,4.498442
LINE51,0.000000,2.434604,17.245171,3.333819,0.000000,-1.559344
LINE52,344.258671,-0.837456,306.063021,3.332334,261.249680,1.248880
LINE53,0.000000,1.607799,0.000000,2.554344,0.000000,2.561426
LINE54,0.000000,2.673979,0.000000,2.516927,0.000000,-1.463965
LINE55,0.000000,0.220047,0.000000,2.919265,0.000000,1.561488
LINE56,17.121944,-0.851847,0.000000,-0.712081,0.000000,4.637175
LINE57,0.000000,2.468207,17.245171,3.333819,0.000000,4.662515
LINE58,344.258671,-0.837456,306.063021,3.332334,261.249680,1.248880
LINE59,0.000000,2.013740,0.000000,1.173434,0.000000,2.351292
LINE60,0.000000,2.960569,0.000000,2.868953,0.000000,-1.000262
LINE61,0.000000,0.296819,0.000000,2.825204,0.000000,1.557025
LINE62,17.121944,-0.851847,0.000000,0.640118,0.000000,-1.553019
LINE63,0.000000,2.162211,17.245171,3.333819,0.000000,-1.445535
LINE64,309.208926,-0.836518,306.063021,3.332334,261.249680,1.248880
LINE65,35.051083,-0.845738,0.000000,0.280851,0.000000,-1.413406
LINE66,0.000000,1.880342,0.000000,2.769958,0.000000,4.297960
LINE67,0.000000,2.607215,0.000000,2.830791,0.000000,-1.348751
LINE68,0.000000,0.333839,0.000000,3.016992,0.000000,1.559535
LINE69,17.121944,-0.851847,0.000000,3.637180,0.000000,-1.455243
LINE70,0.000000,0.412530,17.245171,3.333819,0.000000,-1.561312
LINE71,309.208926,-0.836518,306.063021,3.332334,261.249680,1.248880
LINE72,17.525542,-0.845738,0.000000,-0.016598,0.000000,4.678728
LINE73,17.525542,-0.845738,0.000000,-0.511323,0.000000,0.916677
LINE74,0.000000,1.290323,0.000000,2.767659,0.000000,4.243126
LINE75,0.000000,2.790508,0.000000,2.615418,0.000000,-1.293833
LINE76,0.000000,0.196383,0.000000,2.825204,0.000000,1.561488
LINE77,0.000000,2.664581,17.245171,3.333819,0.000000,4.704633
LINE78,309.208926,-0.836518,306.063021,3.332334,261.249680,1.248880
LINE79,0.000000,1.756220,0.000000,4.059205,0.000000,2.315166
LINE80,0.000000,2.820823,0.000000,2.599443,0.000000,-1.482869
LINE81,0.000000,0.193737,0.000000,2.800690,0.000000,1.562198
LINE82,0.000000,0.024524,17.245171,3.333819,0.000000,0.375121
LINE83,309.208926,-0.836518,306.063021,3.332334,261.249680,1.248880
LINE84,0.000000,2.674428,0.000000,-0.349643,0.000000,4.486308
LINE85,0.000000,2.841669,0.000000,2.613642,0.000000,-1.520754
LINE86,0.000000,0.140217,0.000000,2.913616,0.000000,1.563802
LINE87,309.208926,-0.836518,306.063021,3.332334,261.249680,1.248880
LINE88,0.000000,1.563656,0.000000,1.447845,0.000000,4.578951
LINE89,0.000000,2.794153,0.000000,2.670527,0.000000,-1.523740
LINE90,0.000000,0.116965,0.000000,2.736154,0.000000,1.559926
LINE91,309.208926,-0.836518,306.063021,3.332334,261.249680,1.248880
LINE92,0.000000,2.610708,0.000000,2.360086,0.000000,-1.548552
LINE93,0.000000,0.438716,0.000000,3.116661,0.000000,1.561488
LINE94,309.208926,-0.836518,306.063021,3.332334,261.249680,1.248880
LINE95,0.000000,2.489241,0.000000,2.750477,0.000000,4.406184
LINE96,0.000000,0.438716,0.000000,1.545864,0.000000,4.687457
LINE97,309.208926,-0.836518,306.063021,3.332334,261.249680,1.248880
LINE98,0.000000,2.206899,0.000000,2.578352,0.000000,3.980261
LINE99,0.000000,0.000000,0.000000,3.580308,0.000000,-0.024932
LINE100,309.208926,-0.836518,306.063021,3.332334,261.249680,1.248880
LINE101,0.000000,3.253272,0.000000,3.397826,0.000000,4.161402
LINE102,0.000000,0.000000,0.000000,0.000000,0.000000,0.000000
LINE103,17.663670,-0.843783,52.913158,3.334552,34.542665,1.247307
LINE104,291.545751,-0.836077,253.150020,3.331871,226.707064,1.249120
LINE105,0.000000,3.920568,0.000000,3.659602,0.000000,4.040703
LINE106,17.663670,-0.843783,52.913158,3.334552,34.542665,1.247307
LINE107,291.545751,-0.836077,253.150020,3.331871,226.707064,1.249120
LINE108,0.000000,3.919324,0.000000,3.263099,0.000000,4.266256
LINE109,17.663670,-0.843783,52.913158,3.334552,34.542665,1.247307
LINE110,291.545751,-0.836077,253.150020,3.331871,226.707064,1.249120
LINE111,0.000000,4.080065,0.000000,3.286539,0.000000,4.183367
LINE112,17.663670,-0.843783,52.913158,3.334552,34.542665,1.247307
LINE113,291.545751,-0.836077,253.150020,3.331871,226.707064,1.249120
LINE114,0.000000,4.068159,0.000000,3.287265,0.000000,4.181800
LINE115,17.663670,-0.843783,52.913158,3.334552,34.542665,1.247307
LINE116,17.751249,-0.842759,35.406672,3.334754,34.642773,1.248050
LINE117,273.794924,-0.835644,217.743520,3.331402,192.064314,1.249313
LINE118,0.000000,4.122010,0.000000,3.308680,0.000000,4.151586
LINE119,17.663670,-0.843783,52.913158,3.334552,34.542665,1.247307
LINE120,0.000000,3.835491,0.000000,0.027651,0.000000,-0.024932
LINE121,17.751249,-0.842759,35.406672,3.334754,34.642773,1.248050
LINE122,273.794924,-0.835644,217.743520,3.331402,192.064314,1.249313
LINE123,0.000000,4.169167,0.000000,3.299250,0.000000,4.190830
LINE124,17.663670,-0.843783,52.913158,3.334552,34.542665,1.247307
LINE125,0.000000,4.306951,0.000000,0.010767,0.000000,-1.513880
LINE126,17.751249,-0.842759,35.406672,3.334754,34.642773,1.248050
LINE127,273.794924,-0.835644,217.743520,3.331402,192.064314,1.249313
LINE128,0.000000,4.168818,0.000000,3.273437,0.000000,4.231130
LINE129,17.663670,-0.843783,52.913158,3.334552,34.542665,1.247307
LINE130,0.000000,3.281809,0.000000,0.037487,0.000000,-0.024932
LINE131,17.751249,-0.842759,0.000000,3.763645,0.000000,4.710632
LINE132,0.000000,2.667636,35.406672,3.334754,34.642773,1.248050
LINE133,273.794924,-0.835644,217.743520,3.331402,192.064314,1.249313
LINE134,0.000000,3.980281,0.000000,3.264727,0.000000,4.227739
LINE135,17.663670,-0.843783,52.913158,3.334552,34.542665,1.247307
LINE136,0.000000,3.675260,0.000000,0.016711,0.000000,-1.494513
LINE137,17.751249,-0.842759,0.000000,3.779363,0.000000,4.705176
LINE138,0.000000,2.667992,35.406672,3.334754,34.642773,1.248050
LINE139,273.794924,-0.835644,217.743520,3.331402,192.064314,1.249313
LINE140,0.000000,3.922538,0.000000,3.296584,0.000000,4.273806
LINE141,17.663670,-0.843783,52.913158,3.334552,34.542665,1.247307
LINE142,0.000000,3.475431,0.000000,0.165056,0.000000,-1.527086
LINE143,17.751249,-0.842759,0.000000,3.761750,0.000000,4.706986
LINE144,0.000000,2.656366,35.406672,3.334754,34.642773,1.248050
LINE145,273.794924,-0.835644,217.743520,3.331402,192.064314,1.249313
LINE146,0.000000,3.732290,0.000000,3.398936,0.000000,4.374689
LINE147,17.663670,-0.843783,52.913158,3.334552,34.542665,1.247307
LINE148,0.000000,3.281809,0.000000,0.020491,0.000000,-1.559286
LINE149,17.751249,-0.842759,0.000000,3.750398,0.000000,4.701059
LINE150,0.000000,2.764429,0.000000,-0.446154,34.642773,1.248050
LINE151,0.000000,0.355948,35.406672,3.334754,0.000000,-1.541795
LINE152,273.794924,-0.835644,217.743520,3.331402,192.064314,1.249313
LINE153,0.000000,3.843240,0.000000,3.636612,0.000000,-1.546229
LINE154,17.663670,-0.843783,52.913158,3.334552,34.542665,1.247307
LINE155,0.000000,3.580308,0.000000,-0.024932,0.000000,-1.555126
LINE156,17.751249,-0.842759,0.000000,3.776488,0.000000,4.698012
LINE157,0.000000,2.763747,0.000000,-0.457710,34.642773,1.248050
LINE158,0.000000,0.380568,35.406672,3.334754,0.000000,-1.530894
LINE159,273.794924,-0.835644,217.743520,3.331402,192.064314,1.249313
LINE160,0.000000,-0.878702,0.000000,3.570479,0.000000,2.805737
LINE161,0.000000,2.133792,17.614914,3.334441,0.000000,-1.552442
LINE162,17.663670,-0.843783,35.298244,3.334607,34.542665,1.247307
LINE163,0.000000,3.902059,0.000000,0.037487,0.000000,-1.550447
LINE164,17.751249,-0.842759,0.000000,3.759339,0.000000,4.700385
LINE165,0.000000,2.762239,0.000000,-0.458505,34.642773,1.248050
LINE166,0.000000,0.423042,35.406672,3.334754,0.000000,-1.536784
LINE167,273.794924,-0.835644,217.743520,3.331402,192.064314,1.249313
LINE168,0.000000,2.840069,0.000000,3.387681,0.000000,-1.537196
LINE169,0.000000,2.954137,17.614914,3.334441,0.000000,4.685164
LINE170,17.663670,-0.843783,35.298244,3.334607,34.542665,1.247307
LINE171,0.000000,3.281809,0.000000,0.266525,0.000000,-1.544211
LINE172,17.751249,-0.842759,0.000000,3.826548,0.000000,4.698616
LINE173,0.000000,2.667976,0.000000,-0.404423,0.000000,1.678901
LINE174,0.000000,3.828876,0.000000,3.548979,34.642773,1.248050
LINE175,0.000000,0.592357,35.406672,3.334754,0.000000,-1.554327
LINE176,273.794924,-0.835644,217.743520,3.331402,192.064314,1.249313
LINE177,0.000000,3.470424,17.614914,3.334441,0.000000,1.645612
LINE178,17.663670,-0.843783,35.298244,3.334607,0.000000,-1.490296
LINE179,0.000000,3.261810,0.000000,2.759586,34.542665,1.247307
LINE180,0.000000,-0.488580,0.000000,0.438716,0.000000,-1.517762
LINE181,17.751249,-0.842759,0.000000,3.775676,0.000000,4.707013
LINE182,0.000000,2.656932,0.000000,-0.454219,0.000000,1.753105
LINE183,0.000000,3.813741,0.000000,3.522339,34.642773,1.248050
LINE184,0.000000,0.848519,35.406672,3.334754,0.000000,-1.540143
LINE185,273.794924,-0.835644,217.743520,3.331402,192.064314,1.249313
LINE186,17.663670,-0.843783,35.298244,3.334607,0.000000,-1.188956
LINE187,0.000000,3.260999,0.000000,2.713964,34.542665,1.247307
LINE188,0.000000,0.000000,0.000000,0.438716,0.000000,-1.560586
LINE189,17.751249,-0.842759,0.000000,3.766405,0.000000,4.701745
LINE190,0.000000,2.099671,0.000000,1.323134,0.000000,4.483573
LINE191,0.000000,2.733224,0.000000,-0.664337,0.000000,1.776332
LINE192,0.000000,3.860231,0.000000,3.542517,34.642773,1.248050
LINE193,0.000000,0.791143,35.406672,3.334754,0.000000,-1.528311
LINE194,273.794924,-0.835644,217.743520,3.331402,192.064314,1.249313
LINE195,17.663670,-0.843783,35.298244,3.334607,0.000000,-1.143877
LINE196,0.000000,4.281109,0.000000,0.488431,17.270412,1.247294
LINE197,0.000000,3.260552,0.000000,2.730247,17.272253,1.247320
LINE198,0.000000,4.687457,0.000000,2.331263,0.000000,-1.548888
LINE199,17.751249,-0.842759,0.000000,3.775020,0.000000,4.704310
LINE200,0.000000,0.399339,0.000000,2.068985,0.000000,-1.037294
LINE201,0.000000,2.846878,0.000000,-0.480994,0.000000,1.708084
LINE202,0.000000,3.684354,0.000000,3.291610,34.642773,1.248050
LINE203,0.000000,0.863460,35.406672,3.334754,0.000000,-1.501108
LINE204,273.794924,-0.835644,217.743520,3.331402,192.064314,1.249313
LINE205,17.663670,-0.843783,0.000000,3.353260,0.000000,4.712035
LINE206,0.000000,2.235944,35.298244,3.334607,0.000000,-1.493572
LINE207,0.000000,0.837870,0.000000,4.108767,17.270412,1.247294
LINE208,0.000000,3.180994,0.000000,0.378944,17.272253,1.247320
LINE209,0.000000,2.871682,0.000000,0.438716,0.000000,4.703081
LINE210,17.751249,-0.842759,0.000000,3.834180,0.000000,4.699536
LINE211,0.000000,2.689498,0.000000,-0.088344,0.000000,1.337492
LINE212,0.000000,3.619521,0.000000,3.449858,34.642773,1.248050
LINE213,0.000000,0.852550,35.406672,3.334754,0.000000,-1.510577
LINE214,273.794924,-0.835644,217.743520,3.331402,192.064314,1.249313
LINE215,17.663670,-0.843783,0.000000,4.039473,0.000000,1.483377
LINE216,0.000000,2.110377,35.298244,3.334607,0.000000,4.653128
LINE217,0.000000,3.454208,0.000000,4.161830,17.272253,1.247320
LINE218,0.000000,0.000000,0.000000,0.000000,0.000000,-0.024932
LINE219,17.751249,-0.842759,0.000000,3.832482,0.000000,4.701721
LINE220,0.000000,2.372193,0.000000,-0.460902,0.000000,1.151575
LINE221,0.000000,3.699994,0.000000,3.662189,34.642773,1.248050
LINE222,0.000000,0.878389,35.406672,3.334754,0.000000,-1.531430
LINE223,273.794924,-0.835644,217.743520,3.331402,192.064314,1.249313
LINE224,17.663670,-0.843783,0.000000,0.079284,0.000000,1.474540
LINE225,0.000000,1.503940,35.298244,3.334607,0.000000,4.419327
LINE226,0.000000,3.401532,0.000000,3.225517,17.272253,1.247320
LINE227,17.751249,-0.842759,0.000000,3.849981,0.000000,4.695826
LINE228,0.000000,2.241463,0.000000,-0.175235,0.000000,1.923357
LINE229,0.000000,3.682338,0.000000,4.153170,34.642773,1.248050
LINE230,0.000000,0.721190,35.406672,3.334754,0.000000,-1.527063
LINE231,273.794924,-0.835644,217.743520,3.331402,192.064314,1.249313
LINE232,0.000000,0.371814,35.298244,3.334607,0.000000,1.602240
LINE233,0.000000,3.126169,0.000000,3.126169,0.000000,-0.379767
LINE234,0.000000,4.597364,0.000000,4.607036,17.272253,1.247320
LINE235,17.751249,-0.842759,0.000000,3.768817,0.000000,-1.549000
LINE236,0.000000,1.721847,0.000000,-0.672266,0.000000,2.262180
LINE237,0.000000,3.804989,0.000000,4.390338,34.642773,1.248050
LINE238,0.000000,0.520915,35.406672,3.334754,0.000000,-1.525078
LINE239,273.794924,-0.835644,217.743520,3.331402,192.064314,1.249313
LINE240,0.000000,2.176495,35.298244,3.334607,0.000000,1.601808
LINE241,0.000000,3.640339,0.000000,-1.262721,17.272253,1.247320
LINE242,17.751249,-0.842759,0.000000,3.698048,0.000000,-1.563614
LINE243,0.000000,1.582328,0.000000,-1.158228,0.000000,1.855484
LINE244,0.000000,3.827254,0.000000,4.392389,34.642773,1.248050
LINE245,0.000000,0.707669,35.406672,3.334754,0.000000,-1.528464
LINE246,273.794924,-0.835644,217.743520,3.331402,192.064314,1.249313
LINE247,0.000000,1.737180,17.649122,3.334607,0.000000,1.861413
LINE248,0.000000,1.573822,17.649122,3.334607,0.000000,1.498842
LINE249,0.000000,3.433249,0.000000,1.940377,17.272253,1.247320
LINE250,17.751249,-0.842759,0.000000,-1.096559,0.000000,4.654179
LINE251,0.000000,1.558031,0.000000,-0.667385,0.000000,1.631418
LINE252,0.000000,3.762498,0.000000,4.690567,34.642773,1.248050
LINE253,0.000000,0.696042,35.406672,3.334754,0.000000,-1.533802
LINE254,17.945046,-0.841232,0.000000,-0.035678,0.000000,4.627882
LINE255,255.850177,-0.835252,217.743520,3.331402,192.064314,1.249313
LINE256,0.000000,-0.031345,0.000000,3.028793,17.272253,1.247320
LINE257,17.751249,-0.842759,0.000000,4.162031,0.000000,4.585880
LINE258,0.000000,1.449333,0.000000,-1.304781,0.000000,4.257651
LINE259,0.000000,3.720712,0.000000,-1.304139,34.642773,1.248050
LINE260,0.000000,0.612432,35.406672,3.334754,0.000000,-1.544988
LINE261,17.945046,-0.841232,0.000000,-0.036274,0.000000,4.624308
LINE262,255.850177,-0.835252,217.743520,3.331402,192.064314,1.249313
LINE263,0.000000,2.889974,0.000000,-1.528024,17.272253,1.247320
LINE264,17.751249,-0.842759,0.000000,4.102394,0.000000,4.650622
LINE265,0.000000,0.741833,0.000000,4.491670,0.000000,3.283421
LINE266,0.000000,3.707638,0.000000,-1.041691,34.642773,1.248050
LINE267,0.000000,-0.728788,17.704895,3.334776,0.000000,1.667352
LINE268,0.000000,1.094510,17.701777,3.334732,0.000000,4.705428
LINE269,17.945046,-0.841232,0.000000,-0.168828,0.000000,4.630175
LINE270,0.000000,0.143053,0.000000,3.302044,17.384748,1.249423
LINE271,255.850177,-0.835252,217.743520,3.331402,174.679567,1.249302
LINE272,17.751249,-0.842759,0.000000,4.644305,0.000000,4.670697
LINE273,0.000000,1.439011,0.000000,-0.534919,0.000000,3.550056
LINE274,0.000000,3.680688,0.000000,-0.405450,34.642773,1.248050
LINE275,0.000000,1.967297,17.704895,3.334776,0.000000,1.490757
LINE276,0.000000,0.825884,17.701777,3.334732,0.000000,4.646769
LINE277,17.945046,-0.841232,0.000000,-0.066233,0.000000,4.643948
LINE278,0.000000,-1.241525,0.000000,3.205777,17.384748,1.249423
LINE279,255.850177,-0.835252,217.743520,3.331402,174.679567,1.249302
LINE280,17.751249,-0.842759,0.000000,3.029149,0.000000,-1.491775
LINE281,0.000000,1.369747,0.000000,3.277604,0.000000,2.828695
LINE282,0.000000,3.583859,0.000000,-0.961718,34.642773,1.248050
LINE283,0.000000,0.018027,17.701777,3.334732,0.000000,4.650994
LINE284,17.945046,-0.841232,0.000000,-0.096898,0.000000,4.640547
LINE285,0.000000,-1.400705,0.000000,3.270483,17.384748,1.249423
LINE286,127.959270,-0.834444,72.463830,3.329118,34.734957,1.249966
LINE287,127.890991,-0.836061,145.279973,3.332541,139.944620,1.249137
LINE288,17.751249,-0.842759,0.000000,2.026864,0.000000,4.672598
LINE289,0.000000,-1.490609,0.000000,-1.490609,0.000000,2.256315
LINE290,0.000000,-0.179291,0.000000,1.446892,17.324046,1.248088
LINE291,0.000000,3.084422,0.000000,-1.330445,17.318727,1.248012
LINE292,0.000000,0.801414,17.701777,3.334732,0.000000,4.610430
LINE293,17.945046,-0.841232,0.000000,-0.160902,0.000000,4.654325
LINE294,0.000000,4.573366,0.000000,3.419516,17.384748,1.249423
LINE295,127.959270,-0.834444,72.463830,3.329118,34.734957,1.249966
LINE296,127.890991,-0.836061,145.279973,3.332541,139.944620,1.249137
LINE297,0.000000,2.185485,0.000000,-0.278996,17.324046,1.248088
LINE298,0.000000,3.276578,0.000000,-0.313352,17.318727,1.248012
LINE299,0.000000,2.757309,17.701777,3.334732,0.000000,4.502770
LINE300,17.945046,-0.841232,0.000000,-0.159508,0.000000,4.660935
LINE301,0.000000,4.552826,0.000000,3.401159,17.384748,1.249423
LINE302,127.959270,-0.834444,72.463830,3.329118,34.734957,1.249966
LINE303,127.890991,-0.836061,145.279973,3.332541,139.944620,1.249137
LINE304,0.000000,-0.028636,0.000000,1.198796,17.324046,1.248088
LINE305,0.000000,3.307231,0.000000,-0.642188,17.318727,1.248012
LINE306,0.000000,3.275846,17.701777,3.334732,0.000000,1.696650
LINE307,17.945046,-0.841232,0.000000,-0.285479,0.000000,4.655331
LINE308,0.000000,-1.155286,0.000000,3.340291,17.384748,1.249423
LINE309,127.959270,-0.834444,72.463830,3.329118,34.734957,1.249966
LINE310,127.890991,-0.836061,145.279973,3.332541,139.944620,1.249137
LINE311,0.000000,2.982377,0.000000,0.385413,17.324046,1.248088
LINE312,0.000000,2.705406,0.000000,3.298312,17.318727,1.248012
LINE313,0.000000,1.453335,17.701777,3.334732,0.000000,1.515260
LINE314,17.945046,-0.841232,0.000000,-0.346663,0.000000,4.661292
LINE315,0.000000,-0.774804,0.000000,3.052448,17.384748,1.249423
LINE316,36.134156,-0.839550,0.000000,-0.645418,0.000000,1.553683
LINE317,91.825771,-0.832435,72.463830,3.329118,34.734957,1.249966
LINE318,127.890991,-0.836061,145.279973,3.332541,139.944620,1.249137
LINE319,0.000000,3.848056,0.000000,3.848056,17.324046,1.248088
LINE320,0.000000,4.318057,0.000000,0.245025,17.318727,1.248012
LINE321,17.945046,-0.841232,0.000000,-0.227007,0.000000,4.664246
LINE322,0.000000,2.422054,0.000000,2.422054,17.384748,1.249423
LINE323,36.134156,-0.839550,0.000000,-0.572548,0.000000,1.550431
LINE324,91.825771,-0.832435,72.463830,3.329118,34.734957,1.249966
LINE325,127.890991,-0.836061,145.279973,3.332541,139.944620,1.249137
LINE326,0.000000,2.700498,0.000000,-0.288081,17.318727,1.248012
LINE327,17.945046,-0.841232,0.000000,-0.050041,0.000000,4.669784
LINE328,0.000000,-1.561191,0.000000,2.995113,17.384748,1.249423
LINE329,36.134156,-0.839550,0.000000,-0.654715,0.000000,1.549678
LINE330,0.000000,-1.470872,0.000000,2.577417,17.385968,1.250086
LINE331,91.825771,-0.832435,72.463830,3.329118,17.348989,1.249846
LINE332,127.890991,-0.836061,145.279973,3.332541,139.944620,1.249137
LINE333,17.945046,-0.841232,0.000000,-0.112837,0.000000,4.671712
LINE334,0.000000,1.106942,0.000000,3.335473,17.384748,1.249423
LINE335,36.134156,-0.839550,0.000000,-0.683064,0.000000,1.549122
LINE336,0.000000,0.241712,0.000000,0.044039,17.385968,1.250086
LINE337,0.000000,-0.660342,17.936221,3.330882,0.000000,1.569719
LINE338,91.825771,-0.832435,54.527646,3.328538,17.348989,1.249846
LINE339,127.890991,-0.836061,145.279973,3.332541,139.944620,1.249137
LINE340,17.945046,-0.841232,0.000000,-0.132751,0.000000,4.666449
LINE341,0.000000,0.537657,0.000000,2.244382,17.384748,1.249423
LINE342,18.064430,-0.839586,0.000000,0.775463,0.000000,1.609000
LINE343,18.069726,-0.839513,0.000000,-0.552488,0.000000,1.550853
LINE344,0.000000,-0.655925,17.936221,3.330882,0.000000,1.569159
LINE345,91.825771,-0.832435,54.527646,3.328538,17.348989,1.249846
LINE346,127.890991,-0.836061,145.279973,3.332541,139.944620,1.249137
LINE347,17.945046,-0.841232,0.000000,-0.380959,0.000000,4.674659
LINE348,18.064430,-0.839586,0.000000,3.000503,0.000000,1.666281
LINE349,18.069726,-0.839513,0.000000,-0.672700,0.000000,1.540677
LINE350,0.000000,-0.641051,17.936221,3.330882,0.000000,1.570028
LINE351,91.825771,-0.832435,54.527646,3.328538,17.348989,1.249846
LINE352,127.890991,-0.836061,145.279973,3.332541,139.944620,1.249137
LINE353,17.945046,-0.841232,0.000000,-0.265907,0.000000,4.649461
LINE354,18.069726,-0.839513,0.000000,3.753336,0.000000,1.575748
LINE355,0.000000,-0.404677,17.936221,3.330882,0.000000,1.579256
LINE356,91.825771,-0.832435,54.527646,3.328538,17.348989,1.249846
LINE357,127.890991,-0.836061,145.279973,3.332541,139.944620,1.249137
LINE358,17.945046,-0.841232,0.000000,-0.794248,0.000000,4.639121
LINE359,18.069726,-0.839513,0.000000,0.942685,0.000000,1.658697
LINE360,0.000000,-0.790371,17.936221,3.330882,0.000000,-1.464394
LINE361,91.825771,-0.832435,54.527646,3.328538,17.348989,1.249846
LINE362,127.890991,-0.836061,145.279973,3.332541,139.944620,1.249137
LINE363,17.945046,-0.841232,0.000000,3.845549,0.000000,4.559739
LINE364,18.069726,-0.839513,0.000000,3.122584,0.000000,1.657412
LINE365,0.000000,-0.871811,17.936221,3.330882,0.000000,-1.558999
LINE366,91.825771,-0.832435,54.527646,3.328538,17.348989,1.249846
LINE367,127.890991,-0.836061,145.279973,3.332541,139.944620,1.249137
LINE368,17.945046,-0.841232,0.000000,4.126797,0.000000,1.654676
LINE369,18.069726,-0.839513,0.000000,2.674174,0.000000,2.053865
LINE370,0.000000,-0.309016,17.936221,3.330882,0.000000,4.687218
LINE371,91.825771,-0.832435,54.527646,3.328538,17.348989,1.249846
LINE372,127.890991,-0.836061,145.279973,3.332541,139.944620,1.249137
LINE373,17.945046,-0.841232,0.000000,0.892003,0.000000,4.595673
LINE374,18.069726,-0.839513,0.000000,3.281646,0.000000,1.637606
LINE375,0.000000,-0.653284,17.936221,3.330882,0.000000,4.588690
LINE376,91.825771,-0.832435,54.527646,3.328538,17.348989,1.249846
LINE377,127.890991,-0.836061,145.279973,3.332541,122.516423,1.249063
LINE378,0.000000,2.766658,0.000000,3.863538,17.428200,1.249655
LINE379,17.945046,-0.841232,0.000000,1.418684,0.000000,-1.528939
LINE380,18.069726,-0.839513,0.000000,-0.306672,0.000000,-1.558443
LINE381,0.000000,-0.530237,17.936221,3.330882,0.000000,4.633244
LINE382,91.825771,-0.832435,54.527646,3.328538,17.348989,1.249846
LINE383,127.890991,-0.836061,145.279973,3.332541,122.516423,1.249063
LINE384,0.000000,3.406841,0.000000,3.182659,17.428200,1.249655
LINE385,0.000000,1.894988,0.000000,-0.147894,0.000000,4.474799
LINE386,17.945046,-0.841232,0.000000,3.045170,0.000000,1.562110
LINE387,18.069726,-0.839513,0.000000,3.436497,0.000000,-1.496898
LINE388,0.000000,3.614443,17.936221,3.330882,0.000000,-1.557355
LINE389,91.825771,-0.832435,54.527646,3.328538,17.348989,1.249846
LINE390,127.890991,-0.836061,145.279973,3.332541,122.516423,1.249063
LINE391,0.000000,3.426058,0.000000,3.190551,17.428200,1.249655
LINE392,0.000000,1.888767,0.000000,-0.213344,0.000000,4.461719
LINE393,0.000000,-0.691105,17.936221,3.330882,0.000000,1.334347
LINE394,91.825771,-0.832435,54.527646,3.328538,17.348989,1.249846
LINE395,0.000000,0.539274,0.000000,0.522209,34.914283,1.249750
LINE396,127.890991,-0.836061,145.279973,3.332541,87.602151,1.248789
LINE397,0.000000,3.310726,0.000000,3.205709,17.428200,1.249655
LINE398,0.000000,1.918721,0.000000,-0.298869,0.000000,4.396507
LINE399,0.000000,0.434339,17.936221,3.330882,0.000000,4.695767
LINE400,91.825771,-0.832435,54.527646,3.328538,17.348989,1.249846
LINE401,0.000000,0.648590,0.000000,0.468302,34.914283,1.249750
LINE402,127.890991,-0.836061,145.279973,3.332541,87.602151,1.248789
LINE403,0.000000,3.135067,0.000000,3.034458,17.428200,1.249655
LINE404,0.000000,2.081300,0.000000,-0.539147,0.000000,4.455068
LINE405,0.000000,1.046569,17.936221,3.330882,0.000000,1.693730
LINE406,91.825771,-0.832435,54.527646,3.328538,17.348989,1.249846
LINE407,0.000000,1.003747,0.000000,0.547157,34.914283,1.249750
LINE408,127.890991,-0.836061,145.279973,3.332541,87.602151,1.248789
LINE409,0.000000,-0.691366,0.000000,-1.088748,0.000000,1.469901
LINE410,0.000000,3.037643,0.000000,2.842219,17.428200,1.249655
LINE411,0.000000,1.126867,0.000000,-0.331526,0.000000,4.529632
LINE412,91.825771,-0.832435,54.527646,3.328538,17.348989,1.249846
LINE413,0.000000,0.930372,0.000000,0.540121,34.914283,1.249750
LINE414,127.890991,-0.836061,145.279973,3.332541,87.602151,1.248789
LINE415,0.000000,-0.694063,0.000000,-1.178734,0.000000,1.471029
LINE416,0.000000,3.219661,0.000000,2.656605,17.428200,1.249655
LINE417,0.000000,1.501360,0.000000,-0.336551,0.000000,4.242109
LINE418,91.825771,-0.832435,54.527646,3.328538,17.348989,1.249846
LINE419,0.000000,0.936470,0.000000,0.346470,34.914283,1.249750
LINE420,127.890991,-0.836061,145.279973,3.332541,87.602151,1.248789
LINE421,0.000000,-0.687578,0.000000,-1.181445,0.000000,1.472103
LINE422,0.000000,2.996939,0.000000,1.554660,17.428200,1.249655
LINE423,0.000000,1.702389,0.000000,0.287634,0.000000,4.501854
LINE424,91.825771,-0.832435,54.527646,3.328538,17.348989,1.249846
LINE425,0.000000,1.497315,0.000000,1.497315,0.000000,4.695182
LINE426,0.000000,1.038259,0.000000,0.459050,34.914283,1.249750
LINE427,127.890991,-0.836061,145.279973,3.332541,87.602151,1.248789
LINE428,0.000000,-0.663261,0.000000,-1.551951,0.000000,1.493836
LINE429,0.000000,2.717438,0.000000,0.886573,17.428200,1.249655
LINE430,0.000000,1.680265,0.000000,0.156941,0.000000,4.509444
LINE431,91.825771,-0.832435,54.527646,3.328538,17.348989,1.249846
LINE432,0.000000,4.241443,0.000000,2.195689,0.000000,0.124373
LINE433,0.000000,0.976473,0.000000,0.433781,34.914283,1.249750
LINE434,127.890991,-0.836061,145.279973,3.332541,87.602151,1.248789
LINE435,0.000000,-0.704597,0.000000,-1.369935,0.000000,1.489097
LINE436,0.000000,2.782341,0.000000,0.226528,17.428200,1.249655
LINE437,0.000000,1.775927,0.000000,-0.124993,0.000000,3.187573
LINE438,91.825771,-0.832435,54.527646,3.328538,17.348989,1.249846
LINE439,0.000000,3.126173,0.000000,3.028447,0.000000,3.982422
LINE440,0.000000,1.003700,0.000000,0.417474,34.914283,1.249750
LINE441,127.890991,-0.836061,145.279973,3.332541,87.602151,1.248789
LINE442,0.000000,-0.676030,0.000000,-1.475239,0.000000,1.478696
LINE443,0.000000,2.287187,0.000000,0.923665,17.428200,1.249655
LINE444,0.000000,1.828155,0.000000,-0.100999,0.000000,1.816312
LINE445,91.825771,-0.832435,54.527646,3.328538,17.348989,1.249846
LINE446,0.000000,1.442183,0.000000,4.408992,0.000000,1.572650
LINE447,0.000000,0.929112,0.000000,0.494576,34.914283,1.249750
LINE448,127.890991,-0.836061,145.279973,3.332541,87.602151,1.248789
LINE449,0.000000,-0.694969,0.000000,-0.536810,0.000000,1.486652
LINE450,0.000000,0.408160,0.000000,-0.134478,17.428200,1.249655
LINE451,0.000000,1.695186,0.000000,-0.173235,0.000000,1.836461
LINE452,91.825771,-0.832435,54.527646,3.328538,17.348989,1.249846
LINE453,0.000000,3.017375,0.000000,-0.190386,0.000000,4.479517
LINE454,0.000000,0.737935,0.000000,0.486559,34.914283,1.249750
LINE455,127.890991,-0.836061,145.279973,3.332541,87.602151,1.248789
LINE456,0.000000,-0.628729,0.000000,4.454960,0.000000,1.501066
LINE457,0.000000,1.056190,0.000000,3.551153,17.428200,1.249655
LINE458,0.000000,2.083085,0.000000,1.453635,0.000000,4.154762
LINE459,73.520206,-0.832049,54.527646,3.328538,17.348989,1.249846
LINE460,0.000000,-0.603704,0.000000,3.379831,0.000000,1.890069
LINE461,18.305592,-0.833988,0.000000,1.477680,0.000000,4.668613
LINE462,0.000000,0.789206,0.000000,0.464755,34.914283,1.249750
LINE463,127.890991,-0.836061,145.279973,3.332541,87.602151,1.248789
LINE464,0.000000,-0.659541,0.000000,-0.841379,0.000000,1.466089
LINE465,0.000000,2.047415,0.000000,1.465474,0.000000,4.241918
LINE466,73.520206,-0.832049,54.527646,3.328538,17.348989,1.249846
LINE467,0.000000,-1.062440,0.000000,2.833427,0.000000,1.417059
LINE468,0.000000,4.560837,0.000000,4.560837,0.000000,1.255458
LINE469,18.305592,-0.833988,0.000000,1.542433,0.000000,4.660419
LINE470,0.000000,0.772379,0.000000,0.549413,34.914283,1.249750
LINE471,127.890991,-0.836061,145.279973,3.332541,87.602151,1.248789
LINE472,0.000000,-0.463763,0.000000,3.673602,0.000000,1.613803
LINE473,0.000000,2.349159,0.000000,0.880055,0.000000,4.576972
LINE474,73.520206,-0.832049,54.527646,3.328538,17.348989,1.249846
LINE475,0.000000,0.560412,0.000000,0.560412,0.000000,1.616159
LINE476,18.305592,-0.833988,0.000000,1.587010,0.000000,4.643860
LINE477,0.000000,0.665819,0.000000,0.579250,34.914283,1.249750
LINE478,127.890991,-0.836061,145.279973,3.332541,87.602151,1.248789
LINE479,0.000000,-0.617681,0.000000,3.425626,0.000000,1.409120
LINE480,0.000000,2.282126,0.000000,0.364855,0.000000,4.625428
LINE481,36.779752,-0.831553,54.527646,3.328538,17.348989,1.249846
LINE482,0.000000,3.428900,0.000000,3.042752,0.000000,-1.273224
LINE483,36.740463,-0.832545,0.000000,0.607592,0.000000,4.699247
LINE484,18.305592,-0.833988,0.000000,1.425818,0.000000,4.543886
LINE485,0.000000,0.744711,0.000000,0.369563,34.914283,1.249750
LINE486,127.890991,-0.836061,145.279973,3.332541,87.602151,1.248789
LINE487,0.000000,-0.458996,0.000000,3.268821,0.000000,1.429758
LINE488,0.000000,0.738904,0.000000,3.520431,0.000000,4.434416
LINE489,36.779752,-0.831553,54.527646,3.328538,17.348989,1.249846
LINE490,0.000000,0.168727,0.000000,2.252788,0.000000,4.479413
LINE491,18.369286,-0.832557,0.000000,0.599056,0.000000,4.697954
LINE492,18.371177,-0.832532,0.000000,0.456072,0.000000,1.540564
LINE493,18.305592,-0.833988,0.000000,1.584337,0.000000,4.574271
LINE494,0.000000,1.522652,0.000000,0.661577,34.914283,1.249750
LINE495,127.890991,-0.836061,145.279973,3.332541,87.602151,1.248789
LINE496,0.000000,-0.456557,0.000000,3.175230,0.000000,1.459834
LINE497,0.000000,3.087524,0.000000,1.462168,0.000000,1.707040
LINE498,36.779752,-0.831553,54.527646,3.328538,17.348989,1.249846
LINE499,0.000000,-0.201681,0.000000,2.998203,0.000000,-0.234781
LINE500,18.369286,-0.832557,0.000000,0.527160,0.000000,4.699102
LINE501,18.371177,-0.832532,0.000000,-0.898457,0.000000,1.503770
LINE502,18.305592,-0.833988,0.000000,1.125204,0.000000,4.581805
LINE503,0.000000,2.055899,0.000000,0.776301,34.914283,1.249750
LINE504,127.890991,-0.836061,145.279973,3.332541,87.602151,1.248789
LINE505,0.000000,-0.529715,0.000000,3.208043,0.000000,1.346295
LINE506,0.000000,4.629123,0.000000,1.494520,0.000000,3.271006
LINE507,36.779752,-0.831553,54.527646,3.328538,17.348989,1.249846
LINE508,0.000000,0.103100,0.000000,4.413156,0.000000,2.606214
LINE509,18.369286,-0.832557,0.000000,0.377258,0.000000,4.694021
LINE510,18.305592,-0.833988,0.000000,1.266343,0.000000,4.524389
LINE511,0.000000,2.392758,0.000000,0.429782,34.914283,1.249750
LINE512,0.000000,3.217860,17.998219,3.332510,0.000000,-1.051065
LINE513,127.890991,-0.836061,127.281754,3.332546,87.602151,1.248789
LINE514,0.000000,-0.695785,0.000000,3.344752,0.000000,1.512660
LINE515,0.000000,-0.009576,54.527646,3.328538,17.348989,1.249846
LINE516,0.000000,2.508816,0.000000,2.508816,0.000000,1.169211
LINE517,36.779752,-0.831553,0.000000,3.457119,0.000000,1.848560
LINE518,18.369286,-0.832557,0.000000,0.443083,0.000000,4.659128
LINE519,18.305592,-0.833988,0.000000,1.009170,0.000000,4.262028
LINE520,0.000000,2.774850,0.000000,0.173875,34.914283,1.249750
LINE521,0.000000,3.165434,17.998219,3.332510,0.000000,1.529112
LINE522,127.890991,-0.836061,127.281754,3.332546,87.602151,1.248789
LINE523,0.000000,-0.900089,0.000000,3.653292,0.000000,1.789099
LINE524,0.000000,-0.032598,54.527646,3.328538,17.348989,1.249846
LINE525,0.000000,4.294674,0.000000,1.466310,0.000000,1.494401
LINE526,36.779752,-0.831553,0.000000,3.460180,0.000000,1.880213
LINE527,18.369286,-0.832557,0.000000,0.640256,0.000000,4.680079
LINE528,18.305592,-0.833988,0.000000,0.773001,0.000000,1.666860
LINE529,0.000000,-0.632373,0.000000,3.225989,34.914283,1.249750
LINE530,127.890991,-0.836061,127.281754,3.332546,87.602151,1.248789
LINE531,0.000000,-0.848397,0.000000,3.854536,0.000000,1.555702
LINE532,0.000000,-0.012404,54.527646,3.328538,17.348989,1.249846
LINE533,0.000000,2.589152,0.000000,0.677748,0.000000,-1.103111
LINE534,36.779752,-0.831553,0.000000,3.461962,0.000000,1.882578
LINE535,18.369286,-0.832557,0.000000,0.251926,0.000000,4.595084
LINE536,18.305592,-0.833988,0.000000,1.069854,0.000000,1.616767
LINE537,0.000000,0.005466,0.000000,4.046710,17.460169,1.249792
LINE538,0.000000,-1.238946,0.000000,-1.238946,17.454114,1.249707
LINE539,127.890991,-0.836061,127.281754,3.332546,87.602151,1.248789
LINE540,0.000000,-0.679442,0.000000,4.579355,0.000000,4.456732
LINE541,0.000000,-0.044337,54.527646,3.328538,17.348989,1.249846
LINE542,0.000000,0.316837,0.000000,0.942539,0.000000,-1.470014
LINE543,36.779752,-0.831553,0.000000,3.468841,0.000000,1.832185
LINE544,18.369286,-0.832557,0.000000,2.682435,0.000000,4.625087
LINE545,18.305592,-0.833988,0.000000,1.034458,0.000000,1.624950
LINE546,0.000000,-0.216130,0.000000,4.541161,17.460169,1.249792
LINE547,127.890991,-0.836061,127.281754,3.332546,87.602151,1.248789
LINE548,0.000000,-0.727644,0.000000,4.685309,0.000000,-0.399669
LINE549,0.000000,-0.039529,54.527646,3.328538,17.348989,1.249846
LINE550,0.000000,2.939912,0.000000,2.939912,0.000000,-0.145406
LINE551,18.389642,-0.831557,0.000000,3.335173,0.000000,2.159194
LINE552,18.390110,-0.831550,0.000000,-0.058019,0.000000,4.667828
LINE553,18.369286,-0.832557,0.000000,2.062824,0.000000,-1.553814
LINE554,18.305592,-0.833988,0.000000,2.150299,0.000000,1.608501
LINE555,0.000000,2.848089,0.000000,-0.882312,17.460169,1.249792
LINE556,127.890991,-0.836061,127.281754,3.332546,87.602151,1.248789
LINE557,0.000000,-0.573704,0.000000,3.081488,0.000000,4.613493
LINE558,0.000000,-0.043457,54.527646,3.328538,17.348989,1.249846
LINE559,0.000000,1.355505,0.000000,4.610259,0.000000,2.996186
LINE560,18.389642,-0.831557,0.000000,3.316064,0.000000,4.324054
LINE561,18.390110,-0.831550,0.000000,0.157844,0.000000,4.681180
LINE562,18.369286,-0.832557,0.000000,3.828431,0.000000,1.548634
LINE563,18.305592,-0.833988,0.000000,1.489842,0.000000,1.551612
LINE564,127.890991,-0.836061,127.281754,3.332546,87.602151,1.248789
LINE565,0.000000,4.421354,0.000000,4.329413,0.000000,-0.733956
LINE566,0.000000,0.138788,18.170683,3.328577,17.348989,1.249846
LINE567,0.000000,1.444907,0.000000,1.444907,0.000000,2.467424
LINE568,0.000000,-1.517411,36.356963,3.328519,0.000000,-1.536748
LINE569,18.389642,-0.831557,0.000000,3.430092,0.000000,1.590543
LINE570,18.305592,-0.833988,0.000000,1.513463,0.000000,1.839930
LINE571,127.890991,-0.836061,127.281754,3.332546,87.602151,1.248789
LINE572,0.000000,0.022677,18.170683,3.328577,17.348989,1.249846
LINE573,0.000000,1.201189,0.000000,3.684524,0.000000,2.505071
LINE574,0.000000,-1.368876,36.356963,3.328519,0.000000,-1.537173
LINE575,18.389642,-0.831557,0.000000,3.412717,0.000000,1.587846
LINE576,18.305592,-0.833988,0.000000,0.796163,0.000000,-1.565511
LINE577,127.890991,-0.836061,127.281754,3.332546,87.602151,1.248789
LINE578,0.000000,-0.502690,18.170683,3.328577,17.348989,1.249846
LINE579,0.000000,2.890433,0.000000,0.499784,0.000000,4.512915
LINE580,0.000000,-0.070627,0.000000,2.919771,0.000000,4.361497
LINE581,0.000000,4.115712,36.356963,3.328519,0.000000,-1.528887
LINE582,18.389642,-0.831557,0.000000,3.108242,0.000000,1.578473
LINE583,18.305592,-0.833988,0.000000,2.445081,0.000000,4.629702
LINE584,0.000000,0.073659,18.016059,3.332575,0.000000,1.613450
LINE585,127.890991,-0.836061,109.265695,3.332541,87.602151,1.248789
LINE586,0.000000,-0.544864,18.170683,3.328577,17.348989,1.249846
LINE587,0.000000,2.263644,0.000000,0.171776,0.000000,4.507082
LINE588,0.000000,-0.069912,0.000000,2.971376,0.000000,4.358175
LINE589,0.000000,3.693279,36.356963,3.328519,0.000000,-1.538700
LINE590,18.389642,-0.831557,0.000000,0.192465,0.000000,4.590822
LINE591,18.305592,-0.833988,0.000000,2.464130,0.000000,4.711780
LINE592,0.000000,0.105682,18.016059,3.332575,0.000000,1.614185
LINE593,127.890991,-0.836061,109.265695,3.332541,87.602151,1.248789
LINE594,0.000000,-0.552055,18.170683,3.328577,0.000000,-0.658962
LINE595,0.000000,-0.129742,0.000000,-0.389584,17.348989,1.249846
LINE596,0.000000,-0.207753,0.000000,3.102209,0.000000,3.859273
LINE597,0.000000,3.839826,36.356963,3.328519,0.000000,-1.540832
LINE598,18.389642,-0.831557,0.000000,3.450084,0.000000,1.466077
LINE599,18.305592,-0.833988,0.000000,2.812414,0.000000,1.241986
LINE600,0.000000,0.042412,18.016059,3.332575,0.000000,1.619564
LINE601,0.000000,3.354505,0.000000,1.586039,17.475049,1.248932
LINE602,127.890991,-0.836061,109.265695,3.332541,70.127103,1.248753
LINE603,0.000000,-0.319628,18.170683,3.328577,0.000000,-1.080908
LINE604,0.000000,0.069659,0.000000,1.908664,0.000000,1.617303
LINE605,0.000000,0.835116,0.000000,4.630676,0.000000,4.639454
LINE606,0.000000,-0.145838,0.000000,-0.118571,17.348989,1.249846
LINE607,0.000000,4.636824,0.000000,1.436845,0.000000,0.623557
LINE608,0.000000,-0.332606,0.000000,3.189965,0.000000,3.899711
LINE609,0.000000,3.938906,36.356963,3.328519,0.000000,-1.538850
LINE610,18.389642,-0.831557,0.000000,1.986719,0.000000,1.461771
LINE611,18.305592,-0.833988,0.000000,2.769205,0.000000,-1.547596
LINE612,0.000000,-0.243138,18.016059,3.332575,0.000000,1.613556
LINE613,0.000000,2.586335,0.000000,0.248770,17.475049,1.248932
LINE614,127.890991,-0.836061,109.265695,3.332541,70.127103,1.248753
LINE615,0.000000,-0.191874,18.170683,3.328577,0.000000,1.485051
LINE616,0.000000,-0.201681,0.000000,3.006045,0.000000,3.089688
LINE617,0.000000,2.939912,0.000000,2.939912,0.000000,-0.145406
LINE618,0.000000,-0.575813,0.000000,-0.575813,17.348989,1.249846
LINE619,0.000000,-0.184148,0.000000,3.016973,0.000000,4.080007
LINE620,0.000000,4.099554,36.356963,3.328519,0.000000,-1.545110
LINE621,18.305592,-0.833988,0.000000,0.572255,0.000000,4.665171
LINE622,0.000000,-0.153508,18.016059,3.332575,0.000000,1.646144
LINE623,0.000000,-0.003215,18.050677,3.332106,0.000000,1.703020
LINE624,127.890991,-0.836061,91.215020,3.332627,70.127103,1.248753
LINE625,0.000000,-0.150660,18.170683,3.328577,0.000000,1.508161
LINE626,0.000000,-0.372079,0.000000,3.009453,0.000000,3.550082
LINE627,0.000000,4.034022,36.356963,3.328519,0.000000,-1.541188
LINE628,18.305592,-0.833988,0.000000,2.829198,0.000000,4.710149
LINE629,0.000000,1.794020,18.016059,3.332575,0.000000,1.634782
LINE630,0.000000,-0.125432,18.050677,3.332106,0.000000,1.717278
LINE631,127.890991,-0.836061,91.215020,3.332627,70.127103,1.248753
LINE632,0.000000,-0.312497,18.170683,3.328577,0.000000,-0.067519
LINE633,0.000000,-0.474972,0.000000,2.928329,0.000000,4.301602
LINE634,0.000000,4.413534,36.356963,3.328519,0.000000,-1.549057
LINE635,0.000000,-0.729434,18.016059,3.332575,0.000000,1.655195
LINE636,0.000000,-0.336778,18.050677,3.332106,0.000000,1.804954
LINE637,127.890991,-0.836061,91.215020,3.332627,70.127103,1.248753
LINE638,0.000000,0.000000,18.170683,3.328577,0.000000,-0.067519
LINE639,0.000000,-0.817759,0.000000,3.437133,0.000000,4.404791
LINE640,0.000000,4.629950,36.356963,3.328519,0.000000,-1.549904
LINE641,0.000000,-1.033661,18.016059,3.332575,0.000000,1.643279
LINE642,0.000000,-0.711441,18.050677,3.332106,0.000000,1.756905
LINE643,127.890991,-0.836061,91.215020,3.332627,70.127103,1.248753
LINE644,0.000000,-0.971954,0.000000,3.699519,0.000000,4.268440
LINE645,0.000000,-1.432009,36.356963,3.328519,0.000000,-1.557553
LINE646,0.000000,-0.471548,18.016059,3.332575,0.000000,1.641081
LINE647,0.000000,-0.594942,18.050677,3.332106,0.000000,2.250638
LINE648,127.890991,-0.836061,91.215020,3.332627,70.127103,1.248753
LINE649,0.000000,-1.332871,0.000000,1.697020,0.000000,4.575304
LINE650,0.000000,-1.350403,36.356963,3.328519,0.000000,-1.560013
LINE651,0.000000,-0.786805,18.016059,3.332575,0.000000,1.630814
LINE652,0.000000,-0.621452,18.050677,3.332106,0.000000,1.981270
LINE653,127.890991,-0.836061,91.215020,3.332627,70.127103,1.248753
LINE654,0.000000,4.702278,0.000000,1.327492,0.000000,4.606466
LINE655,0.000000,-1.186522,18.179031,3.328526,0.000000,1.530170
LINE656,0.000000,-0.159302,18.177932,3.328512,0.000000,1.504051
LINE657,0.000000,-0.314308,18.016059,3.332575,0.000000,1.621524
LINE658,0.000000,-0.252914,18.050677,3.332106,0.000000,1.757690
LINE659,127.890991,-0.836061,91.215020,3.332627,70.127103,1.248753
LINE660,0.000000,-1.233190,0.000000,2.019888,0.000000,-1.543652
LINE661,0.000000,3.011653,18.179031,3.328526,0.000000,-1.506895
LINE662,0.000000,-0.275880,18.177932,3.328512,0.000000,-1.526327
LINE663,0.000000,-0.459336,18.016059,3.332575,0.000000,1.627074
LINE664,0.000000,-1.211559,18.050677,3.332106,0.000000,1.695016
LINE665,127.890991,-0.836061,91.215020,3.332627,70.127103,1.248753
LINE666,0.000000,-0.656553,0.000000,0.632703,0.000000,4.603868
LINE667,0.000000,4.471906,18.179031,3.328526,0.000000,-1.417898
LINE668,0.000000,0.098018,18.177932,3.328512,0.000000,-0.944657
LINE669,0.000000,-0.352349,18.016059,3.332575,0.000000,1.623482
LINE670,0.000000,-0.078680,18.050677,3.332106,0.000000,1.758516
LINE671,54.724266,-0.837288,0.000000,0.408872,0.000000,4.657067
LINE672,73.166797,-0.835143,91.215020,3.332627,70.127103,1.248753
LINE673,0.000000,-0.635117,0.000000,2.533308,0.000000,4.518676
LINE674,0.000000,2.607993,18.179031,3.328526,0.000000,4.688160
LINE675,0.000000,0.452549,18.177932,3.328512,0.000000,-1.484423
LINE676,0.000000,-0.571753,18.016059,3.332575,0.000000,1.621738
LINE677,0.000000,2.878071,18.050677,3.332106,0.000000,1.637230
LINE678,54.724266,-0.837288,0.000000,0.947256,0.000000,4.635654
LINE679,73.166797,-0.835143,91.215020,3.332627,70.127103,1.248753
LINE680,0.000000,1.568184,0.000000,1.568184,0.000000,-1.342723
LINE681,0.000000,1.269945,18.179031,3.328526,0.000000,2.820315
LINE682,0.000000,-0.556856,18.016059,3.332575,0.000000,1.623447
LINE683,0.000000,-0.909250,18.050677,3.332106,0.000000,1.734111
LINE684,54.724266,-0.837288,0.000000,1.453231,0.000000,4.633780
LINE685,73.166797,-0.835143,91.215020,3.332627,70.127103,1.248753
LINE686,0.000000,-0.627034,18.016059,3.332575,0.000000,1.672197
LINE687,0.000000,-0.998932,18.050677,3.332106,0.000000,1.626185
LINE688,54.724266,-0.837288,0.000000,0.666270,0.000000,4.646901
LINE689,0.000000,3.215749,0.000000,3.165803,35.017977,1.249115
LINE690,73.166797,-0.835143,91.215020,3.332627,35.109131,1.248393
LINE691,0.000000,-0.038579,18.016059,3.332575,0.000000,1.637200
LINE692,54.724266,-0.837288,0.000000,0.631144,0.000000,4.647794
LINE693,0.000000,3.206696,0.000000,3.139289,17.509641,1.249124
LINE694,0.000000,0.150666,0.000000,3.139599,17.508336,1.249106
LINE695,0.000000,-1.376695,18.110146,3.331986,0.000000,1.557026
LINE696,73.166797,-0.835143,73.104878,3.332786,35.109131,1.248393
LINE697,0.000000,-0.194637,18.016059,3.332575,0.000000,1.600944
LINE698,54.724266,-0.837288,0.000000,0.943606,0.000000,4.646183
LINE699,0.000000,3.075013,0.000000,3.213203,17.509641,1.249124
LINE700,0.000000,2.500514,0.000000,0.185182,17.508336,1.249106
LINE701,0.000000,3.512727,18.110146,3.331986,0.000000,1.511756
LINE702,73.166797,-0.835143,73.104878,3.332786,35.109131,1.248393
LINE703,0.000000,-0.257565,18.016059,3.332575,0.000000,1.626641
LINE704,54.724266,-0.837288,0.000000,0.927763,0.000000,4.649241
LINE705,0.000000,2.989337,0.000000,3.219781,17.509641,1.249124
LINE706,73.166797,-0.835143,73.104878,3.332786,35.109131,1.248393
LINE707,0.000000,3.196633,0.000000,1.573969,0.000000,4.662060
LINE708,0.000000,-0.242708,18.016059,3.332575,0.000000,1.628926
LINE709,54.724266,-0.837288,0.000000,0.970115,0.000000,4.648445
LINE710,0.000000,3.156991,0.000000,3.375823,17.509641,1.249124
LINE711,36.642072,-0.834007,73.104878,3.332786,35.109131,1.248393
LINE712,36.524772,-0.836283,0.000000,3.287869,0.000000,-1.548654
LINE713,0.000000,3.053807,0.000000,1.383046,0.000000,4.612723
LINE714,0.000000,-0.328808,18.016059,3.332575,0.000000,1.610594
LINE715,54.724266,-0.837288,0.000000,0.957423,0.000000,4.646139
LINE716,0.000000,2.890835,0.000000,2.124217,17.509641,1.249124
LINE717,36.642072,-0.834007,73.104878,3.332786,35.109131,1.248393
LINE718,36.524772,-0.836283,0.000000,3.283706,0.000000,-1.534439
LINE719,0.000000,3.293032,0.000000,1.352772,0.000000,4.567178
LINE720,0.000000,-0.047123,18.016059,3.332575,0.000000,1.483446
LINE721,54.724266,-0.837288,0.000000,0.883189,0.000000,4.646781
LINE722,0.000000,3.085498,0.000000,0.976259,17.509641,1.249124
LINE723,36.642072,-0.834007,36.656466,3.332856,35.109131,1.248393
LINE724,0.000000,0.072519,36.448412,3.332715,0.000000,1.575906
LINE725,36.524772,-0.836283,0.000000,3.331634,0.000000,-1.478290
LINE726,0.000000,2.854737,0.000000,1.153685,0.000000,4.518122
LINE727,0.000000,0.262260,18.016059,3.332575,0.000000,3.335085
LINE728,54.724266,-0.837288,0.000000,0.802270,0.000000,4.643590
LINE729,0.000000,2.830817,0.000000,0.665162,17.509641,1.249124
LINE730,36.642072,-0.834007,36.656466,3.332856,35.109131,1.248393
LINE731,0.000000,0.081911,36.448412,3.332715,0.000000,1.575064
LINE732,36.524772,-0.836283,0.000000,3.406314,0.000000,-1.251047
LINE733,0.000000,2.861340,0.000000,1.244942,0.000000,-1.458724
LINE734,0.000000,0.371863,18.016059,3.332575,0.000000,1.746042
LINE735,54.724266,-0.837288,0.000000,0.836334,0.000000,4.649873
LINE736,0.000000,2.690172,0.000000,1.052532,17.509641,1.249124
LINE737,36.642072,-0.834007,36.656466,3.332856,35.109131,1.248393
LINE738,0.000000,0.059754,36.448412,3.332715,0.000000,1.570628
LINE739,36.524772,-0.836283,0.000000,3.405216,0.000000,-1.254574
LINE740,0.000000,3.135247,0.000000,1.518928,0.000000,-1.341524
LINE741,0.000000,0.022857,18.016059,3.332575,0.000000,1.554274
LINE742,54.724266,-0.837288,0.000000,0.831920,0.000000,4.660139
LINE743,0.000000,2.434644,0.000000,2.434644,17.509641,1.249124
LINE744,36.642072,-0.834007,36.656466,3.332856,35.109131,1.248393
LINE745,0.000000,1.431073,18.225041,3.332726,0.000000,4.642875
LINE746,0.000000,0.072982,18.223372,3.332703,0.000000,1.563887
LINE747,36.524772,-0.836283,0.000000,3.456186,0.000000,-1.448985
LINE748,0.000000,3.098113,0.000000,1.367744,0.000000,-1.452514
LINE749,0.000000,0.127929,18.016059,3.332575,0.000000,1.622399
LINE750,54.724266,-0.837288,0.000000,0.749024,0.000000,4.668455
LINE751,0.000000,1.082596,0.000000,-0.060459,17.509641,1.249124
LINE752,36.642072,-0.834007,36.656466,3.332856,0.000000,1.268913
LINE753,0.000000,0.018072,0.000000,4.042096,35.109131,1.248393
LINE754,0.000000,2.179418,18.225041,3.332726,0.000000,-0.181589
LINE755,0.000000,0.096922,18.223372,3.332703,0.000000,1.557722
LINE756,36.524772,-0.836283,0.000000,3.470191,0.000000,-1.441562
LINE757,0.000000,3.131701,0.000000,1.010765,0.000000,-1.383356
LINE758,0.000000,1.204454,18.016059,3.332575,0.000000,1.567090
LINE759,54.724266,-0.837288,0.000000,0.699054,0.000000,4.665939
LINE760,0.000000,1.420598,0.000000,2.545095,17.509641,1.249124
LINE761,36.642072,-0.834007,36.656466,3.332856,0.000000,1.257365
LINE762,0.000000,0.017792,0.000000,4.045466,35.109131,1.248393
LINE763,0.000000,-0.992433,18.223372,3.332703,0.000000,1.543979
LINE764,36.524772,-0.836283,0.000000,3.512207,0.000000,-1.331077
LINE765,0.000000,2.913378,0.000000,1.022840,0.000000,-1.347708
LINE766,0.000000,4.148275,18.016059,3.332575,0.000000,1.659798
LINE767,54.724266,-0.837288,0.000000,0.696079,0.000000,4.661217
LINE768,0.000000,0.045399,0.000000,3.675097,17.509641,1.249124
LINE769,36.642072,-0.834007,36.656466,3.332856,0.000000,1.223356
LINE770,0.000000,-0.988246,0.000000,4.440074,17.555639,1.248408
LINE771,0.000000,-0.072257,0.000000,3.934564,17.553492,1.248378
LINE772,0.000000,0.117990,18.223372,3.332703,0.000000,1.423251
LINE773,36.524772,-0.836283,0.000000,3.515224,0.000000,-1.388409
LINE774,0.000000,2.731341,0.000000,0.951490,0.000000,-1.537014
LINE775,0.000000,0.089629,18.016059,3.332575,0.000000,-0.476957
LINE776,54.724266,-0.837288,0.000000,0.695192,0.000000,4.666273
LINE777,0.000000,2.589796,0.000000,-0.530343,17.509641,1.249124
LINE778,36.642072,-0.834007,36.656466,3.332856,0.000000,1.220487
LINE779,0.000000,3.124474,0.000000,-0.205387,17.555639,1.248408
LINE780,0.000000,-0.167322,0.000000,4.152958,17.553492,1.248378
LINE781,0.000000,0.564007,18.223372,3.332703,0.000000,1.461207
LINE782,36.524772,-0.836283,0.000000,3.520424,0.000000,-1.257894
LINE783,0.000000,2.881792,0.000000,0.649323,0.000000,-1.462731
LINE784,0.000000,0.950295,18.016059,3.332575,0.000000,1.625072
LINE785,54.724266,-0.837288,0.000000,0.673043,0.000000,4.661025
LINE786,36.642072,-0.834007,36.656466,3.332856,0.000000,1.213476
LINE787,0.000000,-0.211270,0.000000,4.198890,17.553492,1.248378
LINE788,0.000000,3.361441,18.223372,3.332703,0.000000,-1.376534
LINE789,36.524772,-0.836283,0.000000,3.596715,0.000000,-0.812700
LINE790,0.000000,1.877425,0.000000,1.184906,0.000000,-1.295054
LINE791,36.482815,-0.837288,0.000000,0.924938,0.000000,4.652422
LINE792,18.241451,-0.837287,0.000000,2.729212,0.000000,-1.564033
LINE793,36.642072,-0.834007,36.656466,3.332856,0.000000,1.257052
LINE794,0.000000,-0.303035,0.000000,-1.506622,17.553492,1.248378
LINE795,0.000000,2.138483,18.223372,3.332703,0.000000,-1.483546
LINE796,36.524772,-0.836283,0.000000,3.572962,0.000000,-1.169215
LINE797,0.000000,1.769505,0.000000,0.583849,0.000000,4.466599
LINE798,36.482815,-0.837288,0.000000,0.613531,0.000000,4.636459
LINE799,18.241451,-0.837287,0.000000,2.641577,0.000000,1.555715
LINE800,36.642072,-0.834007,0.000000,-0.007113,0.000000,0.922805
LINE801,0.000000,0.560913,36.656466,3.332856,0.000000,1.339645
LINE802,0.000000,-0.394956,0.000000,4.558846,17.553492,1.248378
LINE803,0.000000,2.924391,18.223372,3.332703,0.000000,4.547259
LINE804,36.524772,-0.836283,0.000000,3.716255,0.000000,-1.229271
LINE805,0.000000,2.061656,0.000000,0.175590,0.000000,-1.316180
LINE806,36.482815,-0.837288,0.000000,0.686142,0.000000,4.642013
LINE807,18.241451,-0.837287,0.000000,2.425447,0.000000,3.880006
LINE808,36.642072,-0.834007,0.000000,0.187754,0.000000,-1.045889
LINE809,0.000000,0.036859,36.656466,3.332856,0.000000,1.241583
LINE810,0.000000,1.999384,0.000000,4.020050,0.000000,3.100766
LINE811,0.000000,-0.382518,0.000000,3.579580,17.553492,1.248378
LINE812,0.000000,2.662289,18.223372,3.332703,0.000000,1.639975
LINE813,36.524772,-0.836283,0.000000,3.706542,0.000000,-1.428797
LINE814,0.000000,-0.140967,0.000000,-0.073076,0.000000,-1.419328
LINE815,36.482815,-0.837288,0.000000,0.382182,0.000000,4.630913
LINE816,18.241451,-0.837287,0.000000,-0.179717,0.000000,4.506967
LINE817,36.642072,-0.834007,0.000000,0.005875,0.000000,-1.313016
LINE818,0.000000,-0.604050,36.656466,3.332856,0.000000,1.208817
LINE819,0.000000,1.018958,0.000000,2.754697,0.000000,1.748989
LINE820,0.000000,-0.861457,0.000000,1.354376,17.553492,1.248378
LINE821,36.524772,-0.836283,0.000000,3.603705,0.000000,-1.431065
LINE822,0.000000,0.002872,0.000000,-1.473560,0.000000,0.586877
LINE823,36.482815,-0.837288,0.000000,0.574641,0.000000,4.578964
LINE824,36.642072,-0.834007,0.000000,0.092553,0.000000,-1.426474
LINE825,0.000000,-0.235444,36.656466,3.332856,0.000000,1.165450
LINE826,0.000000,0.295447,0.000000,3.473969,0.000000,4.408875
LINE827,0.000000,0.051736,0.000000,4.111884,17.553492,1.248378
LINE828,36.524772,-0.836283,0.000000,3.553595,0.000000,-1.339871
LINE829,0.000000,-0.201108,0.000000,0.324266,0.000000,2.179464
LINE830,36.482815,-0.837288,0.000000,0.518295,0.000000,4.607846
LINE831,36.642072,-0.834007,0.000000,0.164311,0.000000,-1.453382
LINE832,0.000000,-0.253704,36.656466,3.332856,0.000000,1.212556
LINE833,0.000000,1.506565,0.000000,1.506565,0.000000,4.708510
LINE834,0.000000,0.466528,0.000000,3.507428,17.553492,1.248378
LINE835,36.524772,-0.836283,0.000000,3.568900,0.000000,-1.356298
LINE836,36.482815,-0.837288,0.000000,2.006078,0.000000,4.491731
LINE837,36.642072,-0.834007,0.000000,0.152944,0.000000,-1.480437
LINE838,0.000000,-0.136523,36.656466,3.332856,0.000000,1.162805
LINE839,0.000000,-0.169781,0.000000,1.414217,0.000000,1.326509
LINE840,36.524772,-0.836283,0.000000,3.551541,0.000000,-1.341614
LINE841,36.482815,-0.837288,0.000000,-1.162770,0.000000,4.636861
LINE842,36.642072,-0.834007,0.000000,0.284113,0.000000,-1.479196
LINE843,0.000000,-0.595593,36.656466,3.332856,0.000000,1.436969
LINE844,0.000000,0.609652,0.000000,-0.672025,0.000000,1.020937
LINE845,0.000000,-0.201681,0.000000,-0.201681,0.000000,2.996186
LINE846,36.524772,-0.836283,0.000000,3.544640,0.000000,-1.349485
LINE847,36.482815,-0.837288,0.000000,3.225177,0.000000,4.433239
LINE848,36.642072,-0.834007,0.000000,0.270200,0.000000,-1.494977
LINE849,0.000000,-0.531166,36.656466,3.332856,0.000000,-0.067519
LINE850,0.000000,0.703560,0.000000,-0.700614,0.000000,1.157106
LINE851,0.000000,0.490634,0.000000,3.240687,0.000000,3.214192
LINE852,36.524772,-0.836283,0.000000,3.463092,0.000000,-1.315727
LINE853,36.482815,-0.837288,0.000000,3.417153,0.000000,1.559646
LINE854,36.642072,-0.834007,0.000000,-0.099116,0.000000,-1.486967
LINE855,0.000000,-0.475150,36.656466,3.332856,0.000000,-1.475701
LINE856,0.000000,0.691500,0.000000,-0.649487,0.000000,1.123788
LINE857,0.000000,1.817388,0.000000,2.967084,0.000000,4.659940
LINE858,36.524772,-0.836283,0.000000,3.436590,0.000000,-1.532902
LINE859,18.237567,-0.837340,0.000000,3.525855,0.000000,1.568724
LINE860,18.245248,-0.837236,0.000000,1.157861,0.000000,2.013317
LINE861,36.642072,-0.834007,0.000000,-0.055470,0.000000,-1.490323
LINE862,0.000000,-0.451336,36.656466,3.332856,0.000000,-1.506275
LINE863,0.000000,0.292789,0.000000,4.533888,0.000000,1.160639
LINE864,0.000000,3.496701,0.000000,2.780464,0.000000,0.518640
LINE865,36.524772,-0.836283,0.000000,3.312188,0.000000,-1.539464
LINE866,36.642072,-0.834007,0.000000,-0.099035,0.000000,-1.496182
LINE867,0.000000,-0.389269,36.656466,3.332856,0.000000,1.495465
LINE868,0.000000,0.446459,0.000000,4.507046,0.000000,1.200771
LINE869,0.000000,2.939912,0.000000,2.939912,0.000000,-0.145406
LINE870,36.524772,-0.836283,0.000000,3.210624,0.000000,-1.477277
LINE871,36.642072,-0.834007,0.000000,-0.058273,0.000000,-1.506426
LINE872,0.000000,2.610426,18.329868,3.332879,0.000000,1.619933
LINE873,0.000000,0.000000,18.326598,3.332834,0.000000,-1.449196
LINE874,0.000000,-0.153348,0.000000,4.083935,0.000000,1.321670
LINE875,0.000000,1.415956,0.000000,1.415956,0.000000,4.613823
LINE876,36.524772,-0.836283,0.000000,3.399232,0.000000,-1.546128
LINE877,36.642072,-0.834007,0.000000,-0.104707,0.000000,-1.507382
LINE878,0.000000,2.288676,18.329868,3.332879,0.000000,-0.067519
LINE879,0.000000,1.503278,18.326598,3.332834,0.000000,-1.475701
LINE880,0.000000,-0.453592,0.000000,3.334899,0.000000,4.442322
LINE881,0.000000,4.642770,0.000000,1.124137,0.000000,2.077313
LINE882,36.524772,-0.836283,0.000000,3.124716,0.000000,1.302338
LINE883,36.642072,-0.834007,0.000000,-0.093790,0.000000,-1.510902
LINE884,0.000000,2.829095,18.329868,3.332879,0.000000,-1.490953
LINE885,0.000000,0.000000,18.326598,3.332834,0.000000,3.074074
LINE886,36.524772,-0.836283,0.000000,2.718439,0.000000,4.700023
LINE887,18.321565,-0.833988,0.000000,-0.052917,0.000000,-1.506972
LINE888,18.320507,-0.834027,0.000000,3.650715,0.000000,4.391656
LINE889,0.000000,1.503278,18.329868,3.332879,0.000000,-1.560348
LINE890,36.524772,-0.836283,0.000000,-0.353968,0.000000,1.620037
LINE891,18.321565,-0.833988,0.000000,-0.171498,0.000000,-1.525452
LINE892,18.320507,-0.834027,0.000000,-0.143288,0.000000,-0.191456
LINE893,0.000000,3.074074,18.329868,3.332879,0.000000,-0.067519
LINE894,18.267676,-0.836211,0.000000,0.980672,0.000000,1.402320
LINE895,18.257097,-0.836354,0.000000,-0.423961,0.000000,1.527715
LINE896,18.321565,-0.833988,0.000000,-0.503460,0.000000,-1.535005
LINE897,18.320507,-0.834027,0.000000,3.643339,0.000000,1.734732
LINE898,0.000000,0.000000,18.329868,3.332879,0.000000,-0.067519
LINE899,18.267676,-0.836211,0.000000,0.675159,0.000000,1.535563
LINE900,18.321565,-0.833988,0.000000,-0.924766,0.000000,-1.535764
LINE901,18.321565,-0.833988,0.000000,-0.349831,0.000000,-1.558713
LINE902,18.321565,-0.833988,0.000000,-0.744206,0.000000,1.310173
LINE903,18.321565,-0.833988,0.000000,4.628673,0.000000,4.674731
LINE904,18.321565,-0.833988,0.000000,3.752115,0.000000,1.707718
LINE905,18.321565,-0.833988,0.000000,1.018506,0.000000,4.684944
